 .Sol file Watershed HRU:57 Subbasin:6 HRU:1 Luse:PAST Soil: pLB Slope: 20-40 3/10/2014 12:00:00 AM ArcSWAT 2012.10_1.13
 Soil Name: pLB
 Soil Hydrologic Group: D
 Maximum rooting depth(m) : 1000.00
 Porosity fraction from which anions are excluded: 0.500
 Crack volume potential of soil: 0.500
 Texture 1                : A-AB-Bg1-Bg2
 Depth                [mm]:     1000.00
 Bulk Density Moist [g/cc]:        1.25
 Ave. AW Incl. Rock Frag  :        0.19
 Ksat. (est.)      [mm/hr]:       45.00
 Organic Carbon [weight %]:        2.55
 Clay           [weight %]:       21.00
 Silt           [weight %]:       52.00
 Sand           [weight %]:       27.00
 Rock Fragments   [vol. %]:        0.00
 Soil Albedo (Moist)      :        0.01
 Erosion K                :        0.49
 Salinity (EC, Form 5)    :        0.00
 Soil pH                  :        0.00
 Soil CACO3               :        0.00
                              
