 .Sol file Watershed HRU:28 Subbasin:3 HRU:1 Luse:PAST Soil: kLB Slope: 5-10 3/10/2014 12:00:00 AM ArcSWAT 2012.10_1.13
 Soil Name: kLB
 Soil Hydrologic Group: B
 Maximum rooting depth(m) : 1000.00
 Porosity fraction from which anions are excluded: 0.500
 Crack volume potential of soil: 0.500
 Texture 1                : A-ABv-C
 Depth                [mm]:     1000.00
 Bulk Density Moist [g/cc]:        1.25
 Ave. AW Incl. Rock Frag  :        0.19
 Ksat. (est.)      [mm/hr]:       45.00
 Organic Carbon [weight %]:        4.87
 Clay           [weight %]:       33.00
 Silt           [weight %]:       52.00
 Sand           [weight %]:       15.00
 Rock Fragments   [vol. %]:        0.00
 Soil Albedo (Moist)      :        0.01
 Erosion K                :        0.49
 Salinity (EC, Form 5)    :        0.00
 Soil pH                  :        0.00
 Soil CACO3               :        0.00
                              
