 .Sol file Watershed HRU:26 Subbasin:2 HRU:15 Luse:FRST Soil: LB Slope: 20-40 3/10/2014 12:00:00 AM ArcSWAT 2012.10_1.13
 Soil Name: LB
 Soil Hydrologic Group: B
 Maximum rooting depth(m) : 1000.00
 Porosity fraction from which anions are excluded: 0.500
 Crack volume potential of soil: 0.500
 Texture 1                : A1-A2-Bv-C
 Depth                [mm]:     1000.00
 Bulk Density Moist [g/cc]:        1.25
 Ave. AW Incl. Rock Frag  :        0.19
 Ksat. (est.)      [mm/hr]:       45.00
 Organic Carbon [weight %]:        5.80
 Clay           [weight %]:       14.00
 Silt           [weight %]:       64.00
 Sand           [weight %]:       22.00
 Rock Fragments   [vol. %]:        0.00
 Soil Albedo (Moist)      :        0.01
 Erosion K                :        0.49
 Salinity (EC, Form 5)    :        0.00
 Soil pH                  :        0.00
 Soil CACO3               :        0.00
                              
