 .Wgn file Subbasin: 2 STATION NAME:wea80 3/10/2014 12:00:00 AM ArcSWAT 2012.10_1.13
  LATITUDE =  47.85 LONGITUDE =  13.37
  ELEV [m] = 491.00
  RAIN_YRS =  52.00
  2.90  5.10 10.30 15.20 20.50 23.40 25.60 25.40 20.30 14.20  7.50  4.00
 -2.00 -0.90  2.40  5.80 10.50 13.50 15.40 15.30 11.70  7.00  2.40 -0.50
  4.92  5.63  5.81  5.62  4.76  3.46  2.90  3.15  4.21  4.51  4.94  4.85
  3.25  3.78  3.79  3.82  3.13  2.33  1.60  1.77  3.03  3.35  3.95  3.55
 107.5  99.0 124.0 106.7 140.2 168.5 176.4 167.6 118.4  93.6 112.9 127.7
  7.10  7.10  7.70  6.90  8.10  9.30 10.50 10.30  8.00  6.70  7.60  7.90
  4.00  3.69  3.70  3.70  2.88  2.69  3.89  3.27  3.50  3.15  3.87  3.50
  0.26  0.27  0.29  0.30  0.34  0.44  0.35  0.32  0.29  0.22  0.28  0.30
  0.68  0.69  0.71  0.65  0.64  0.67  0.68  0.64  0.61  0.58  0.66  0.71
 15.02 14.10 16.27 14.48 15.94 18.08 16.87 15.58 13.58 11.63 14.40 16.33
 16.00 17.53 20.32 27.18 38.35 35.56 34.04 45.21 25.83 25.65 22.86 13.90
  3.91  6.50 10.04 14.18 17.75 19.14 19.48 16.90 12.74  8.38  4.54  3.25
 -3.25 -3.14 -0.68  2.36  7.47 10.59 12.96 12.94  9.71  6.23  1.34 -1.48
  1.90  2.00  2.20  2.40  2.30  2.20  2.10  1.90  1.80  1.70  1.90  2.00
