Watershed atmospheric deposition file      .atm file 3/13/2014 12:00:00 AM ArcSWAT 2012.10_1.13




     0.000 | RAMMO_SUB : Atmospheric deposition of ammonium (mg/l)
     0.000 | RCN_SUB : Atmospheric deposition of nitrate (mg/l)
     0.000 | DRYDEP_NH4 : Atmospheric dry deposition of ammonium (kg/ha/yr)
     0.000 | DRYDEP_NO3 : Atmospheric dry deposition of nitrates (kg/ha/yr)
